         414

Tb    6.824332    3.939242   13.530140
O     7.369542    5.561978   15.174255
N     4.919169    3.974699   11.827411
N     5.368848    6.037098   13.539426
O     5.145714    3.601221   15.174255
N     7.745525    2.272776   11.827411
N     5.734595    1.631009   13.539426
O     7.955694    2.655709   15.174255
N     7.806256    5.571433   11.827411
N     9.367507    4.150801   13.539426
C     6.768378    6.622134   15.440052
C     4.394431    3.143830   10.974305
C     4.000706    5.007672   11.972497
C     4.267511    6.072555   12.877833
C     5.698430    7.120892   14.436057
C     4.528174    2.550520   15.440052
C     8.727448    2.233774   10.974305
C     7.310176    0.960877   11.972497
C     6.254558    0.659495   12.877833
C     4.631211    1.374539   14.436057
C     9.174397    2.646254   15.440052
C     7.349071    6.441305   10.974305
C     9.160068    5.850360   11.972497
C     9.948882    5.086858   12.877833
C    10.141309    3.323477   14.436057
O     6.964217    7.320632   16.455074
N     3.182550    3.555128   10.562261
H     4.805214    2.356690   10.698642
C     2.913016    4.702744   11.197737
H     3.670441    6.778144   12.988099
C     6.242957    8.314602   13.690315
H     4.894604    7.385636   14.929349
O     3.825338    2.370873   16.455074
N     8.977194    0.978606   10.562261
H     9.203739    2.983093   10.698642
C     8.118096    0.171374   11.197737
H     5.942034   -0.210377   12.988099
C     3.325165    1.249259   13.690315
H     4.803850    0.546034   14.929349
O     9.681395    2.127404   16.455074
N     8.311206    7.285175   10.562261
H     6.461997    6.479126   10.698642
C     9.439837    6.944791   11.197737
H    10.858474    5.251141   12.988099
C    10.902828    2.255048   13.690315
H    10.772496    3.887239   14.929349
H     2.637341    3.116646    9.949998
H     2.133073    5.202684   11.110686
H     6.449714    9.032010   14.322890
H     7.058384    8.055768   13.214433
H     5.576287    8.630167   13.046133
H     9.629535    0.725681    9.949998
H     8.075107   -0.754046   11.110686
H     2.600493    1.069611   14.322890
H     3.141608    2.084855   13.214433
H     3.385213    0.514123   13.046133
H     8.204074    7.976581    9.949998
H    10.262770    7.370271   11.110686
H    11.420743    1.717287   14.322890
H    10.270958    1.678285   13.214433
H    11.509450    2.674619   13.046133
O     6.824332    3.939242   17.857185
O     8.079884    6.246293   18.655158
O     6.614164    6.090284   20.941713
O     6.824332    3.939242   22.575382
O     4.197909    3.874238   18.655158
O     5.065878    2.682892   20.941713
O     8.193157    1.698377   18.655158
O     8.790908    3.045733   20.941713
Tb   -0.000682    7.879666   15.487060
O    -0.545892    6.256930   13.842945
N     1.904481    7.844210   17.189789
N     1.454802    5.781810   15.477774
O     1.677936    8.217687   13.842945
N    -0.921875    9.546132   17.189789
N     1.089055   10.187899   15.477774
O    -1.132044    9.163200   13.842945
N    -0.982606    6.247475   17.189789
N    -2.543857    7.668108   15.477774
C     0.055272    5.196774   13.577148
C     2.429219    8.675079   18.042895
C     2.822944    6.811237   17.044703
C     2.556139    5.746353   16.139367
C     1.125220    4.698016   14.581143
C     2.295476    9.268388   13.577148
C    -1.903798    9.585135   18.042895
C    -0.486526   10.858031   17.044703
C     0.569092   11.159413   16.139367
C     2.192439   10.444369   14.581143
C    -2.350747    9.172655   13.577148
C    -0.525421    5.377603   18.042895
C    -2.336418    5.968549   17.044703
C    -3.125232    6.732050   16.139367
C    -3.317659    8.495431   14.581143
O    -0.140567    4.498277   12.562126
N     3.641100    8.263781   18.454939
H     2.018436    9.462218   18.318558
C     3.910634    7.116165   17.819463
H     3.153209    5.040764   16.029101
C     0.580693    3.504306   15.326885
H     1.929046    4.433273   14.087851
O     2.998312    9.448035   12.562126
N    -2.153544   10.840303   18.454939
H    -2.380089    8.835816   18.318558
C    -1.294446   11.647534   17.819463
H     0.881616   12.029285   16.029101
C     3.498485   10.569650   15.326885
H     2.019800   11.272875   14.087851
O    -2.857745    9.691505   12.562126
N    -1.487556    4.533733   18.454939
H     0.361653    5.339783   18.318558
C    -2.616187    4.874118   17.819463
H    -4.034824    6.567767   16.029101
C    -4.079178    9.563861   15.326885
H    -3.948846    7.931669   14.087851
H     4.186309    8.702262   19.067202
H     4.690577    6.616225   17.906514
H     0.373936    2.786899   14.694310
H    -0.234734    3.763140   15.802767
H     1.247363    3.188742   15.971067
H    -2.805885   11.093228   19.067202
H    -1.251457   12.572955   17.906514
H     4.223157   10.749297   14.694310
H     3.682042    9.734053   15.802767
H     3.438437   11.304786   15.971067
H    -1.380424    3.842327   19.067202
H    -3.439120    4.448637   17.906514
H    -4.597093   10.101621   14.694310
H    -3.447308   10.140623   15.802767
H    -4.685800    9.144290   15.971067
O    -0.000682    7.879666   11.160015
O    -1.256234    5.572615   10.362042
O     0.209486    5.728625    8.075487
O    -0.000682    7.879666    6.441818
O     2.625741    7.944670   10.362042
O     1.757772    9.136016    8.075487
O    -1.369507   10.120531   10.362042
O    -1.967258    8.773176    8.075487
Tb    0.000682    7.878878   23.202540
O     0.545892    9.501614   24.846655
N    -1.904481    7.914335   21.499811
N    -1.454802    9.976735   23.211826
O    -1.677936    7.540858   24.846655
N     0.921875    6.212412   21.499811
N    -1.089055    5.570646   23.211826
O     1.132044    6.595345   24.846655
N     0.982606    9.511070   21.499811
N     2.543857    8.090437   23.211826
C    -0.055272   10.561771   25.112452
C    -2.429219    7.083466   20.646705
C    -2.822944    8.947308   21.644897
C    -2.556139   10.012191   22.550233
C    -1.125220   11.060529   24.108457
C    -2.295476    6.490157   25.112452
C     1.903798    6.173410   20.646705
C     0.486526    4.900513   21.644897
C    -0.569092    4.599131   22.550233
C    -2.192439    5.314175   24.108457
C     2.350747    6.585890   25.112452
C     0.525421   10.380941   20.646705
C     2.336418    9.789996   21.644897
C     3.125232    9.026494   22.550233
C     3.317659    7.263113   24.108457
O     0.140567   11.260268   26.127474
N    -3.641100    7.494764   20.234661
H    -2.018436    6.296327   20.371042
C    -3.910634    8.642380   20.870137
H    -3.153209   10.717780   22.660499
C    -0.580693   12.254238   23.362715
H    -1.929046   11.325272   24.601749
O    -2.998312    6.310509   26.127474
N     2.153544    4.918242   20.234661
H     2.380089    6.922729   20.371042
C     1.294446    4.111010   20.870137
H    -0.881616    3.729260   22.660499
C    -3.498485    5.188895   23.362715
H    -2.019800    4.485670   24.601749
O     2.857745    6.067040   26.127474
N     1.487556   11.224811   20.234661
H    -0.361653   10.418762   20.371042
C     2.616187   10.884427   20.870137
H     4.034824    9.190777   22.660499
C     4.079178    6.194684   23.362715
H     3.948846    7.826875   24.601749
H    -4.186309    7.056282   19.622398
H    -4.690577    9.142320   20.783086
H    -0.373936   12.971646   23.995290
H     0.234734   11.995404   22.886833
H    -1.247363   12.569803   22.718533
H     2.805885    4.665317   19.622398
H     1.251457    3.185590   20.783086
H    -4.223157    5.009247   23.995290
H    -3.682042    6.024492   22.886833
H    -3.438437    4.453759   22.718533
H     1.380424   11.916218   19.622398
H     3.439120   11.309907   20.783086
H     4.597093    5.656924   23.995290
H     3.447308    5.617921   22.886833
H     4.685800    6.614255   22.718533
O     0.000682    7.878878   27.529585
O     1.256234   10.185929   28.327558
O    -0.209486   10.029920    1.596913
O     0.000682    7.878878    3.230582
O    -2.625741    7.813874   28.327558
O    -1.757772    6.622528    1.596913
O     1.369507    5.638013   28.327558
O     1.967258    6.985369    1.596913
Tb   13.646618    0.000394   25.159460
O    13.101408   -1.622342   23.515345
N    15.551781   -0.035063   26.862189
N    15.102102   -2.097462   25.150174
O    15.325236    0.338415   23.515345
N    12.725425    1.666860   26.862189
N    14.736355    2.308627   25.150174
O    12.515256    1.283927   23.515345
N    12.664694   -1.631797   26.862189
N    11.103443   -0.211165   25.150174
C    13.702572   -2.682498   23.249548
C    16.076519    0.795807   27.715295
C    16.470244   -1.068035   26.717103
C    16.203439   -2.132919   25.811767
C    14.772520   -3.181256   24.253543
C    15.942776    1.389116   23.249548
C    11.743502    1.705862   27.715295
C    13.160774    2.978759   26.717103
C    14.216392    3.280141   25.811767
C    15.839739    2.565097   24.253543
C    11.296553    1.293383   23.249548
C    13.121879   -2.501669   27.715295
C    11.310882   -1.910724   26.717103
C    10.522068   -1.147222   25.811767
C    10.329641    0.616159   24.253543
O    13.506733   -3.380996   22.234526
N    17.288400    0.384508   28.127339
H    15.665736    1.582946   27.990958
C    17.557934   -0.763108   27.491863
H    16.800509   -2.838508   25.701501
C    14.227993   -4.374966   24.999285
H    15.576346   -3.446000   23.760251
O    16.645612    1.568763   22.234526
N    11.493756    2.961031   28.127339
H    11.267211    0.956544   27.990958
C    12.352854    3.768262   27.491863
H    14.528916    4.150013   25.701501
C    17.145785    2.690378   24.999285
H    15.667100    3.393603   23.760251
O    10.789555    1.812233   22.234526
N    12.159744   -3.345539   28.127339
H    14.008953   -2.539489   27.990958
C    11.031113   -3.005154   27.491863
H     9.612476   -1.311505   25.701501
C     9.568122    1.684588   24.999285
H     9.698454    0.052397   23.760251
H    17.833609    0.822990   28.739602
H    18.337877   -1.263047   27.578914
H    14.021236   -5.092374   24.366710
H    13.412566   -4.116132   25.475167
H    14.894663   -4.690531   25.643467
H    10.841415    3.213955   28.739602
H    12.395843    4.693683   27.578914
H    17.870457    2.870025   24.366710
H    17.329342    1.854781   25.475167
H    17.085737    3.425514   25.643467
H    12.266876   -4.036945   28.739602
H    10.208180   -3.430635   27.578914
H     9.050207    2.222349   24.366710
H    10.199992    2.261351   25.475167
H     8.961500    1.265017   25.643467
O    13.646618    0.000394   20.832415
O     5.567416    9.512252   20.034442
O     7.033136    9.668261   17.747887
O    13.646618    0.000394   16.114218
O     2.625741    0.065398   20.034442
O     1.757772    1.256744   17.747887
O    12.277793    2.241259   20.034442
O    11.680042    0.893903   17.747887
Tb    0.000000    0.000788    3.857740
O    -1.677936   -0.338415    5.501855
N     0.921875   -1.666860    2.155011
N    -1.089055   -2.308627    3.867026
O     1.132044   -1.283927    5.501855
N     0.982606    1.631797    2.155011
N     2.543857    0.211165    3.867026
O     0.545892    1.622342    5.501855
N    -1.904481    0.035063    2.155011
N    -1.454802    2.097462    3.867026
C    -2.295476   -1.389116    5.767652
C     1.903798   -1.705862    1.301905
C     0.486526   -2.978759    2.300097
C    -0.569092   -3.280141    3.205433
C    -2.192439   -2.565097    4.763657
C     2.350747   -1.293383    5.767652
C     0.525421    2.501669    1.301905
C     2.336418    1.910724    2.300097
C     3.125232    1.147222    3.205433
C     3.317659   -0.616159    4.763657
C    -0.055272    2.682498    5.767652
C    -2.429219   -0.795807    1.301905
C    -2.822944    1.068035    2.300097
C    -2.556139    2.132919    3.205433
C    -1.125220    3.181256    4.763657
O    -2.998312   -1.568763    6.782674
N     2.153544   -2.961031    0.889861
H     2.380089   -0.956544    1.026242
C     1.294446   -3.768262    1.525337
H    -0.881616   -4.150013    3.315699
C    -3.498485   -2.690378    4.017915
H    -2.019800   -3.393603    5.256949
O     2.857745   -1.812233    6.782674
N     1.487556    3.345539    0.889861
H    -0.361653    2.539489    1.026242
C     2.616187    3.005154    1.525337
H     4.034824    1.311505    3.315699
C     4.079178   -1.684588    4.017915
H     3.948846   -0.052397    5.256949
O     0.140567    3.380996    6.782674
N    -3.641100   -0.384508    0.889861
H    -2.018436   -1.582946    1.026242
C    -3.910634    0.763108    1.525337
H    -3.153209    2.838508    3.315699
C    -0.580693    4.374966    4.017915
H    -1.929046    3.446000    5.256949
H     2.805885   -3.213955    0.277598
H     1.251457   -4.693683    1.438286
H    -4.223157   -2.870025    4.650490
H    -3.682042   -1.854781    3.542033
H    -3.438437   -3.425514    3.373733
H     1.380424    4.036945    0.277598
H     3.439120    3.430635    1.438286
H     4.597093   -2.222349    4.650490
H     3.447308   -2.261351    3.542033
H     4.685800   -1.265017    3.373733
H    -4.186309   -0.822990    0.277598
H    -4.690577    1.263047    1.438286
H    -0.373936    5.092374    4.650490
H     0.234734    4.116132    3.542033
H    -1.247363    4.690531    3.373733
O     0.000000    0.000788    8.184785
O     4.197909   11.753511    8.982758
O     5.065878   10.562165   11.269313
O     0.000000    0.000788   12.902982
O    -5.454143    9.577649    8.982758
O    -4.856392   10.925005   11.269313
O     1.256234    2.306657    8.982758
O    -0.209486    2.150647   11.269313
Tb    6.823650    3.938848    5.814660
O     8.501586    4.278051    4.170545
N     5.901775    5.606496    7.517389
N     7.912705    6.248263    5.805374
O     5.691606    5.223564    4.170545
N     5.841044    2.307839    7.517389
N     4.279793    3.728472    5.805374
O     6.277758    2.317294    4.170545
N     8.728131    3.904573    7.517389
N     8.278452    1.842174    5.805374
C     9.119126    5.328752    3.904748
C     4.919852    5.645499    8.370495
C     6.337124    6.918395    7.372303
C     7.392742    7.219777    6.466967
C     9.016089    6.504733    4.908743
C     4.472903    5.233019    3.904748
C     6.298229    1.437967    8.370495
C     4.487232    2.028913    7.372303
C     3.698418    2.792414    6.466967
C     3.505991    4.555795    4.908743
C     6.878922    1.257138    3.904748
C     9.252869    4.735443    8.370495
C     9.646594    2.871601    7.372303
C     9.379789    1.806717    6.466967
C     7.948870    0.758380    4.908743
O     9.821962    5.508399    2.889726
N     4.670106    6.900667    8.782539
H     4.443561    4.896180    8.646158
C     5.529204    7.707898    8.147063
H     7.705266    8.089649    6.356701
C    10.322135    6.630014    5.654485
H     8.843450    7.333239    4.415451
O     3.965905    5.751869    2.889726
N     5.336094    0.594097    8.782539
H     7.185303    1.400147    8.646158
C     4.207463    0.934482    8.147063
H     2.788826    2.628131    6.356701
C     2.744472    5.624225    5.654485
H     2.874804    3.992033    4.415451
O     6.683083    0.558640    2.889726
N    10.464750    4.324145    8.782539
H     8.842086    5.522582    8.646158
C    10.734284    3.176529    8.147063
H     9.976859    1.101128    6.356701
C     7.404343   -0.435330    5.654485
H     8.752696    0.493636    4.415451
H     4.017765    7.153591    9.394802
H     5.572193    8.633319    8.234114
H    11.046807    6.809661    5.021910
H    10.505692    5.794417    6.130367
H    10.262087    7.365150    6.298667
H     5.443226   -0.097309    9.394802
H     3.384530    0.509001    8.234114
H     2.226557    6.161985    5.021910
H     3.376342    6.200987    6.130367
H     2.137850    5.204653    6.298667
H    11.009959    4.762626    9.394802
H    11.514227    2.676589    8.234114
H     7.197586   -1.152738    5.021910
H     6.588916   -0.176496    6.130367
H     8.071013   -0.750895    6.298667
O     6.823650    3.938848    1.487615
O     9.449391    4.005034    0.689642
O     8.581422    5.196380   27.420287
O     6.823650    3.938848   25.786618
O     5.454143    6.180895    0.689642
O     4.856392    4.833540   27.420287
O     5.567416    1.632979    0.689642
O     7.033136    1.788989   27.420287
