148

V	1.9265400790073333 2.88921234528184 8.35881291971147
V	6.738248048126041 8.740859971149773 9.976380571258453
V	1.794258682069007 2.8776404233269908 1.372915361615893
V	6.870529445064369 8.752431893104623 16.962278129354033
H	1.722674696917931 5.768515868950081 8.068798511667936
H	6.9421134302154455 5.861556447481533 10.266394979301987
H	2.528542994214198 5.932499888611766 6.703719279231367
H	6.136245132919178 5.697572427819847 11.631474211738556
H	3.2116632741606486 6.26860897855664 8.105919314374201
H	5.453124852972726 5.361463337874974 10.22927417659572
H	4.331245428302002 4.319408858322701 6.2251920451916085
H	4.333542698831374 7.3106634581089125 12.110001445778314
H	4.598292534259378 3.175009742385831 7.263275788223909
H	4.066495592873998 8.455062574045783 11.071917702746013
H	5.061041044003185 4.60550863730692 7.634811597014688
H	3.6037470831301897 7.024563679124694 10.700381893955234
H	4.069216010238378 1.5351695457689731 10.811985995198155
H	4.5955721168949974 10.09490277066264 7.523207495771768
H	5.030168375124802 1.3374583163896356 9.515042688573272
H	3.6346197520085743 10.292614000041977 8.82015080239665
H	4.43355667019067 2.767957211310724 9.800457013880163
H	4.231231456942705 8.862115105120889 8.534736477089758
H	1.8905505369637083 0.0 8.674052970525095
H	6.258374191328137 0.0 6.685446902427899
H	3.046052082149562 11.537031737900161 13.055167529561174
H	5.618736044983815 0.09304057853145291 5.2800259614087475
H	3.8210218788286245 11.188129568407211 11.757943208697107
H	4.843766248304751 0.4419427480244013 6.577250282272816
H	1.9315478642466208 4.966040879116298 10.407811648213357
H	6.7332402628867545 6.664031437315314 7.927381842756565
H	1.4100080967689212 4.047265166118201 11.558980859885793
H	7.254780030364454 7.582807150313412 6.776212631084129
H	0.4409153920212273 5.163752108495636 10.877941463096294
H	8.223872735112149 6.466320207935977 7.457252027873627
H	7.007899826492728 3.302940537866578 11.868565880543226
H	1.656888300640647 8.327131778565034 6.466627610426694
H	7.956156800847437 2.2678641017041645 12.481468133039986
H	0.7086313262859381 9.362208214727449 5.853725357929935
H	7.444733106907245 2.128303233906985 10.967740817500697
H	1.2200550202261309 9.501769082524628 7.367452673469224
H	7.418957106699212 3.3843510440815994 8.762818229516997
H	1.245831020434164 8.245721272350014 9.572375261452926
H	7.036771007093811 2.1166731615905534 8.05098163023503
H	1.6280171200395646 9.51339915484106 10.284211860734892
H	7.812579920998255 3.256420248600852 7.303688593493506
H	0.8522082061351204 8.373652067830761 11.031504897476417
H	1.4157617292082856 1.6049499796675628 5.11705819832358
H	7.24902639792509 10.025122336764051 13.218135292646343
H	2.1731405839868523 0.8594623441842961 6.279221225085136
H	6.491647543146523 10.770609972247318 12.055972265884787
H	0.745372973372794 0.4535728203408329 5.978039039795477
H	7.919415153760582 11.17649949609078 12.357154451174445
H	1.9442260850442923 3.9658546599031803 4.910807496174572
H	6.7205620420890835 7.664217656528434 13.42438599479535
H	1.1480095842265754 4.570618420357624 3.6885550771432003
H	7.5167785429068 7.05945389607399 14.646638413826722
H	2.5605626585216172 5.000931096065594 3.9168447192847884
H	6.104225468611759 6.62914122036602 14.418348771685134
H	4.441609290132812 3.5006517672459156 3.44078071219637
H	4.223178837000564 8.1294205491857 14.894412778773553
H	4.1331744868277065 2.0585228000083955 2.890476707373681
H	4.531613640305669 9.571549516423218 15.444716783596242
H	3.7478054869101274 2.372534752552049 4.387532941285442
H	4.916982640223249 9.257537563879565 13.947660549684482
H	6.62387722233235 4.198456106231812 15.871467795736978
H	2.0409109048010254 7.431616210199802 2.463725695232946
H	7.8399206811368565 3.8728140813717276 14.966887855248405
H	0.8248674459965193 7.757258235059886 3.3683056357215184
H	6.745271976031346 2.709806849728566 15.30704950970873
H	1.9195161511020284 8.920265466703048 3.028143981261194
H	6.708129811314756 1.8724416429454898 3.7923715692115088
H	1.9566583158186188 9.757630673486123 14.542821921758414
H	7.844651171645559 2.326014463286323 4.768908602908729
H	0.8201369554878164 9.304057853145292 13.566284888061194
H	6.721139870805989 3.2680503209172835 4.443294304135822
H	1.9436482563273865 8.36202199551433 13.891899186834102
H	3.3966570399054343 10.990418339027874 4.504581923670216
H	5.268131087227941 0.6396539774037387 13.830611567299707
H	2.3327608155400066 0.23260144632863228 2.5830813361519414
H	6.33202731159337 11.397470870102982 15.75211215481798
H	1.9930834226970437 11.129979206825054 4.580921769065552
H	6.6717047044363325 0.5000931096065594 13.754271721904372
H	1.1766452309202473 0.25586159096149547 13.108513741428652
H	7.4881428962131285 11.374210725470117 5.226679749541271
H	2.0553998755526095 1.5119094011361098 12.698423139342731
H	6.609388251580766 10.118162915295503 5.636770351627192
H	2.795186071457276 0.18608115706290582 12.965150054438196
H	5.8696020556761 11.443991159368707 5.370043436531727
H	1.389495620202476 5.605694856520038 14.377297806097578
H	7.2752925069309 6.024377459911576 3.957895684872343
H	2.9114908701040303 5.931336881380123 14.421677703898357
H	5.753297257029346 5.698735435051491 3.9135157870715656
H	2.1882983059080177 5.79410202804623 13.075050030385894
H	6.476489821225359 5.835970288385384 5.260143460584029
H	4.107188707313328 2.9424082960571982 13.470998923359343
H	4.557599419820048 8.687664020374415 4.8641945676105784
H	3.8888288043661667 4.082155383067496 12.458857402117555
H	4.775959322767209 7.547916933364117 5.8763360888523675
H	4.582108159322988 4.279866612446834 13.828695682951892
H	4.082679967810388 7.35020570398478 4.506497808018029
C	2.5803429216012868 5.667334239797126 7.661455013749616
C	6.084445205532088 5.962738076634487 10.673738477220308
C	4.338139087997705 4.107392639994153 7.198614250281064
C	4.326649039135671 7.522679676437461 11.136579240688857
C	4.210602687280359 1.838365531058345 9.845573325825217
C	4.454185439853017 9.79170678537327 8.489620165144704
C	2.652868428820839 0.15584296904018363 9.146198453229264
C	6.011919698312537 11.47422934739143 9.188995037740659
C	1.1699437602644118 4.477228939656678 10.694259906983973
C	7.494844366868964 7.152843376774935 7.640933583985948
C	7.775492261476337 2.732601791468772 11.652655403154005
C	0.8892958656570391 8.897470524962841 6.682538087815918
C	7.738190115254862 2.767957211310724 8.132868747358788
C	0.926598011878513 8.862115105120889 10.202324743611133
C	1.3178367306435954 1.1976648471461275 6.030553709065688
C	7.34695139648978 10.432407469285486 12.304639781904235
C	2.0044380197793075 4.257769475045613 3.948413505249925
C	6.660350107354069 7.372302841386 14.386779985719997
C	3.787774590766144 2.7224836285534764 3.4662944118704297
C	4.877013536367232 8.907588687878137 14.868899079099492
C	7.278972196809581 3.5169338684889198 15.647384489036531
C	1.3858159303237947 8.113138447942694 2.687809001933392
C	7.312953982279651 2.605717702496503 4.045688027904965
C	1.3518341448537239 9.024354613935111 14.289505463064957
C	2.7206477536440103 11.62297797231859 4.690495210531019
C	5.9441403734893665 0.007094344113023284 13.644698280438904
C	2.036196177598259 0.729903338579248 13.275440650225885
C	6.6285919495351155 10.900168977852365 5.059752840744038
C	2.23959733070621 5.462528666304764 13.973640104307151
C	6.425190796427167 6.1675436501268495 4.361553386662773
C	3.88541723032642 3.821525462456264 13.376950058010747
C	4.779370896806956 7.808546853975351 4.958243432959175
N	3.0387989526311006 4.298591028876289 7.827987068751037
N	5.6259891745022745 7.331481287555325 10.507206422218886
N	3.047048027767113 1.5487767303791982 9.023418077676903
N	5.617740099366262 10.081295586052416 9.311775413293018
N	0.7629661649073058 3.5196087851216995 9.674912015159272
N	7.9018219622260695 8.110463531309914 8.660281475810649
N	0.849158851510135 2.1687758855681674 7.007298134148654
N	7.81562927562324 9.461296430863447 11.32789535682127
N	2.455075756323131 3.1683806011654645 3.0927196612711905
N	6.209712370810244 8.46169171526615 15.242473829698731
N	8.10158225134522 3.167333894656986 2.959275000812157
N	0.5632058757881547 8.462738421774628 15.375918490157765
N	2.1951400975793582 1.1349787573605612 0.8288895067434997
N	6.469648029554016 10.495093559071053 17.506303984226424
N	2.585721578457967 4.050637887089967 13.988249212707219
N	6.079066548675407 7.579434429341647 4.346944278262704
