276 

Dy    9.1265507991104649E+00    2.5134721060664180E+00    1.4046836778024010E+01
C    7.4177289075717487E+00    4.3834378090365886E+00    1.3736431403180399E+01
C    6.7780509317069155E+00    3.3855395782476121E+00    1.4577582209894258E+01
C    6.5224566689862318E+00    2.2567808259823465E+00    1.3736413914395783E+01
H    5.9962756341465919E+00    1.3640912111288934E+00    1.4053383596741764E+01
C    6.9788282207660091E+00    2.4921975538997834E+00    1.2416012866925222E+01
C    7.5453082738851220E+00    3.8007475216155515E+00    1.2433471819765861E+01
H    7.9313109170330467E+00    4.3174642049485099E+00    1.1562975197232140E+01
C    8.1106697871335776E+00    5.7144351207988748E+00    1.4079370547223693E+01
C    9.4746271732546035E+00    5.3855656600961721E+00    1.4732346059846934E+01
H    1.0139886945257023E+01    4.8449579375464893E+00    1.4028367024270480E+01
H    9.3860830727701003E+00    4.8228425826807575E+00    1.5675196802357398E+01
H    1.0042032354790035E+01    6.2936952538731568E+00    1.4975975061936635E+01
C    7.2844622369352017E+00    6.6528700713042745E+00    1.4972737923126250E+01
H    7.0484595406015824E+00    6.2488962902016052E+00    1.5958604245464764E+01
H    6.3373392634668546E+00    6.9084096563060671E+00    1.4484351650466859E+01
H    7.8434654935914461E+00    7.5831610227310131E+00    1.5137105103226903E+01
C    8.4158645391232447E+00    6.5117012382570731E+00    1.2795052341600536E+01
H    9.1202490243499774E+00    5.9886538213324947E+00    1.2138723904449106E+01
H    8.8796066362306370E+00    7.4697421439579053E+00    1.3056624234112912E+01
H    7.5057592193825649E+00    6.7202082154853890E+00    1.2220716014168504E+01
C    6.3267088771275137E+00    3.3899587576855525E+00    1.6049586646204592E+01
C    5.9219253434033101E+00    1.9681293262244168E+00    1.6500788457771936E+01
H    5.0512350837117062E+00    1.5906129383350007E+00    1.5953060926204147E+01
H    5.6523810263580323E+00    1.9928414646543176E+00    1.7564505492360617E+01
H    6.7346249118313981E+00    1.2370252605100827E+00    1.6384002938017538E+01
C    5.0679036179484305E+00    4.2711844671068580E+00    1.6202166414156444E+01
H    5.2359221052784068E+00    5.3099091389185640E+00    1.5907457093263350E+01
H    4.7227974395475281E+00    4.2698977381916441E+00    1.7245067292019417E+01
H    4.2570108301023790E+00    3.8765002212827890E+00    1.5576632758447264E+01
C    7.4307957834257810E+00    3.8390923634682905E+00    1.7027239900568059E+01
H    8.3078713535724589E+00    3.1682839653263146E+00    1.6989498705073949E+01
H    7.0598927870454506E+00    3.7790364007788231E+00    1.8055664720720483E+01
H    7.7835341657206527E+00    4.8609910160353795E+00    1.6873578417275358E+01
C    6.5855291882289890E+00    1.6685759721427131E+00    1.1193375948726622E+01
C    1.0868198688770784E+01    6.6310099755224627E-01    1.3825327420528630E+01
C    1.1460142736734962E+01    1.6537656582659026E+00    1.4712408364166505E+01
C    1.1749540763045047E+01    2.7928898663623842E+00    1.3893131847953830E+01
H    1.2252843414740582E+01    3.6873306499879748E+00    1.4240192784723028E+01
C    1.1355589956597388E+01    2.5713866283606874E+00    1.2552404634037337E+01
C    1.0794239947372029E+01    1.2606086945021326E+00    1.2525795788511152E+01
H    1.0440278485133625E+01    7.5690185675679400E-01    1.1633600908335737E+01
C    1.0154684332015842E+01   -6.6666659716727128E-01    1.4120703759894404E+01
C    8.7780174380753646E+00   -3.1991016678685164E-01    1.4733597512258228E+01
H    8.1337486723745336E+00    2.2543596568533583E-01    1.4010870523716154E+01
H    8.8551818464741121E+00    2.4301470264139549E-01    1.5678948928013368E+01
H    8.1873847971898144E+00   -1.2158554824650223E+00    1.4962841764880828E+01
C    9.8882910859091702E+00   -1.4525256646156277E+00    1.2818014192094985E+01
H    9.3963995921279704E+00   -2.4020174249905666E+00    1.3059631346536957E+01
H    1.0820538230888319E+01   -1.6792305597031096E+00    1.2288518716045848E+01
H    9.2278735212193119E+00   -9.1914640977432494E-01    1.2123548579512002E+01
C    1.0941190915042664E+01   -1.6146054977717388E+00    1.5040058839954275E+01
H    1.1132290355729843E+01   -1.2130088862481867E+00    1.6036799933622760E+01
H    1.1908715718942620E+01   -1.8662783066866049E+00    1.4590663706359118E+01
H    1.0375416796473482E+01   -2.5451633808954570E+00    1.5176979431190265E+01
C    1.1887664334141013E+01    1.6342082751270188E+00    1.6197431800635318E+01
C    1.3140610793797043E+01    7.4236131120917714E-01    1.6352854374397999E+01
H    1.3953995969117294E+01    1.1256977893423386E+00    1.5722872486779476E+01
H    1.3490353106001548E+01    7.4786868226115299E-01    1.7394232927264241E+01
H    1.2963738115499163E+01   -2.9779491422310517E-01    1.6066709744630867E+01
C    1.2298423163266261E+01    3.0541667966362489E+00    1.6651600617649226E+01
H    1.1487970840660809E+01    3.7862114516860936E+00    1.6527638037497617E+01
H    1.3176950854479839E+01    3.4295530564576220E+00    1.6112890819495597E+01
H    1.2556919624515437E+01    3.0288500707027475E+00    1.7717770281692658E+01
C    1.0777985100929698E+01    1.1912053590981537E+00    1.7179800848875789E+01
H    9.9016081432238305E+00    1.8602501623434664E+00    1.7132440920469843E+01
H    1.1146599014279005E+01    1.2614217177490108E+00    1.8213530477923506E+01
H    1.0428680463524747E+01    1.6560341152840799E-01    1.7033304573866300E+01
C    1.1755730085955793E+01    3.4177257064777331E+00    1.1349992197587959E+01
C    1.3064230243917420E+01    2.8107073226380912E+00    1.0788770323200065E+01
H    1.2918706072878242E+01    1.7692769142701044E+00    1.0475849005724649E+01
H    1.3854333264300161E+01    2.8275119437127132E+00    1.1546886971050242E+01
H    1.3412616054544078E+01    3.3843550041405752E+00    9.9198976946484958E+00
C    1.2014822373380587E+01    4.8830809820503545E+00    1.1737745921655337E+01
H    1.1100873382271827E+01    5.3960878979399034E+00    1.2060719719373097E+01
H    1.2405376981960462E+01    5.4337306240382555E+00    1.0870660788967610E+01
H    1.2752462641903316E+01    4.9758563583845561E+00    1.2540341090981853E+01
C    1.0687629370140439E+01    3.3772673458583125E+00    1.0254063699254583E+01
H    1.0502268281230080E+01    2.3572773799196662E+00    9.9047565679460590E+00
H    1.1013513217138870E+01    3.9649960619033799E+00    9.3879859712091012E+00
H    9.7374499622596513E+00    3.7955234850047694E+00    1.0604437901398942E+01
Dy   -2.2216896136829262E-01    7.7881153631345397E+00    5.4397829023726532E+00
C    1.4877517660213442E+00    5.9222259135733255E+00    5.7523097066705802E+00
C    2.1287015116876549E+00    6.9195914394898903E+00    4.9114029612841765E+00
C    2.3828879792872355E+00    8.0488019632772083E+00    5.7520610254406792E+00
H    2.9091065677071408E+00    8.9414663296816439E+00    5.4351524016244062E+00
C    1.9257799803356239E+00    7.8138761679068995E+00    7.0724125006693237E+00
C    1.3594894303340586E+00    6.5054796898737619E+00    7.0552524882926635E+00
H    9.7297169499423253E-01    5.9890980711879971E+00    7.9257310295562418E+00
C    7.9414360290972608E-01    4.5913691519670152E+00    5.4094948099244187E+00
C   -5.7002860833160596E-01    4.9201378603794561E+00    4.7569390052375127E+00
H   -1.2353816547034167E+00    5.4612922782151108E+00    5.4605938598944510E+00
H   -4.8200512041858173E-01    5.4816799391030608E+00    3.8133004259734311E+00
H   -1.1379218877251138E+00    4.0119733967656348E+00    4.5146101258068123E+00
C    1.6195521614598722E+00    3.6530335013493334E+00    4.5155215944271658E+00
H    1.8540564880937267E+00    4.0567812862966193E+00    3.5291931227676527E+00
H    2.5673577946976183E+00    3.3982428281090269E+00    5.0029051525131587E+00
H    1.0608234764138516E+00    2.7224024101983573E+00    4.3521612838845822E+00
C    4.8939662329957367E-01    3.7940045775935709E+00    6.6938493944908162E+00
H   -2.1461745460198242E-01    4.3170492387432713E+00    7.3505471113706511E+00
H    2.5427340678645338E-02    2.8360287395933428E+00    6.4324187706918163E+00
H    1.3997040280817385E+00    3.5853903273051686E+00    7.2677872313319769E+00
C    2.5794691836323049E+00    6.9154517308439178E+00    3.4392083597699403E+00
C    2.9864942279053128E+00    8.3369074065576747E+00    2.9886338069319063E+00
H    3.8575470546688013E+00    8.7128255184580041E+00    3.5369062626499326E+00
H    3.2564933332260599E+00    8.3122202958855702E+00    1.9250172115608442E+00
H    2.1748993973790265E+00    9.0692439253772417E+00    3.1053605730355587E+00
C    3.8364892684606224E+00    6.0320811875080746E+00    3.2845026630810046E+00
H    3.6673060983469625E+00    4.9935464670488425E+00    3.5791759644758949E+00
H    4.1800661598097193E+00    6.0331237959770041E+00    2.2410913210191814E+00
H    4.6490047287541820E+00    6.4252994483888370E+00    3.9088510469086759E+00
C    1.4735060704280558E+00    6.4690567786172375E+00    2.4624293558297605E+00
H    5.9689127095499450E-01    7.1405189938472784E+00    2.5027138405043985E+00
H    1.8426493768984493E+00    6.5308073134222857E+00    1.4334589677426925E+00
H    1.1203032838531606E+00    5.4470797345487938E+00    2.6147316181732476E+00
C    2.3191607802727550E+00    8.6381621052166047E+00    8.2945318580327836E+00
C   -1.9607391125408176E+00    9.6426234279618956E+00    5.6596771883578745E+00
C   -2.5529848254580383E+00    8.6517550764651379E+00    4.7730542956537754E+00
C   -2.8442723559596379E+00    7.5136338566627598E+00    5.5933284442235776E+00
H   -3.3486265509799895E+00    6.6195592187469057E+00    5.2468428130375804E+00
C   -2.4503534781954857E+00    7.7357927598790459E+00    6.9338768926324938E+00
C   -1.8875736788308697E+00    9.0461709797346899E+00    6.9595233862329060E+00
H   -1.5333317686338723E+00    9.5503129671958220E+00    7.8513333367230045E+00
C   -1.2466479106733039E+00    1.0971784293527170E+01    5.3632961902591880E+00
C    1.2921063580972397E-01    1.0623926146299430E+01    4.7491283333018179E+00
H    7.7371913652767088E-01    1.0078899157072213E+01    5.4717057238639715E+00
H    5.0472577265807034E-02    1.0059735693740080E+01    3.8046652722594283E+00
H    7.1993388030008387E-01    1.1519382387500595E+01    4.5177956123072240E+00
C   -9.7877850480158335E-01    1.1757871781829524E+01    6.6655364213523063E+00
H   -4.8585316678539897E-01    1.2706678221015384E+01    6.4233204491144198E+00
H   -1.9105925195369207E+00    1.1985959698613250E+01    7.1952528740326471E+00
H   -3.1876900354824894E-01    1.1223987986084943E+01    7.3599735842158331E+00
C   -2.0337377011614137E+00    1.1919970560184385E+01    4.4447169778604581E+00
H   -2.2265337358353952E+00    1.1518374870952204E+01    3.4483063147475548E+00
H   -3.0004853269040330E+00    1.2172294962037871E+01    4.8954138516478602E+00
H   -1.4676086706607145E+00    1.2850182343679981E+01    4.3068794837764051E+00
C   -2.9815448460575720E+00    8.6713036077598122E+00    3.2882873200676817E+00
C   -4.2353351315411309E+00    9.5623259806064862E+00    3.1346849756129394E+00
H   -5.0475839543447734E+00    9.1785013820664467E+00    3.7658373995738779E+00
H   -4.5865572380304291E+00    9.5566317471786508E+00    2.0938131670313243E+00
H   -4.0585995315943908E+00    1.0602580562334952E+01    3.4206167993035761E+00
C   -3.3916760910592090E+00    7.2511293361781171E+00    2.8342578232641524E+00
H   -2.5808161912187675E+00    6.5195064478236118E+00    2.9580983109056049E+00
H   -4.2699051172140283E+00    6.8752608413873801E+00    3.3730959468515631E+00
H   -3.6503685051375285E+00    7.2762067360509368E+00    1.7681331906769135E+00
C   -1.8736102769424976E+00    9.1154264709036710E+00    2.3044086521743155E+00
H   -9.9717803860484389E-01    8.4464469964502413E+00    2.3495443159683571E+00
H   -2.2443653110458794E+00    9.0462839899703145E+00    1.2713801777945630E+00
H   -1.5241111529095313E+00    1.0140933129414984E+01    2.4512322102226305E+00
C   -2.8507949463975009E+00    6.8905233877072263E+00    8.1369825682468910E+00
C   -4.1601566855370544E+00    7.4969810626884259E+00    8.6967142223056904E+00
H   -4.0157057025656444E+00    8.5388244326519036E+00    9.0086581085248927E+00
H   -4.9498321024964804E+00    7.4786784417358554E+00    7.9382437216451152E+00
H   -4.5084158905694212E+00    6.9239256594454979E+00    9.5660123191336819E+00
C   -3.1082247544378370E+00    5.4244666804584716E+00    7.7507863259124781E+00
H   -2.1934126035180697E+00    4.9117913569536231E+00    7.4297271546869572E+00
H   -3.4994670861925372E+00    4.8746182343855518E+00    8.6180668334869708E+00
H   -3.8446833345109934E+00    5.3299936783129844E+00    6.9473208436674110E+00
C   -1.7836176255611353E+00    6.9334227045435224E+00    9.2337093583058483E+00
H   -1.5996472282337320E+00    7.9540902825264137E+00    9.5817973135351515E+00
H   -2.1096512660972091E+00    6.3465893908189024E+00    1.0100343205164817E+01
H   -8.3267849368104507E-01    6.5157229556395242E+00    8.8847504009333811E+00
F    6.5705805410182654E+00   -1.4240947713442349E+00    4.6428592831426654E+00
F    7.9830787023761109E+00   -2.6342994941082063E+00    6.5264378363692721E+00
F    9.6027046191902361E+00   -1.1770427930430563E+00    8.2400923094144467E+00
F    9.9015622366124347E+00    1.5139849097769116E+00    7.8211639655806664E+00
F    8.5578451905935129E+00    2.7586333858972636E+00    5.8579631765662459E+00
F    9.6328650158829152E+00    1.6996758202800610E+00    3.4305209340360312E+00
F    1.0785228486510331E+01    3.3420395984064153E+00    1.6705435172766336E+00
F    9.2973971446355055E+00    5.1548218799861045E+00    2.4838954401990063E-01
F    6.5434074154575494E+00    5.2303369299288773E+00    6.0626913030050533E-01
F    5.3683611033882883E+00    3.5585048795227316E+00    2.3268823323229744E+00
F    6.5736991206123241E+00    4.6907251245471784E+00    4.6735554583502612E+00
F    5.1593992530524284E+00    5.8751936754259537E+00    6.5757614746375452E+00
F    3.6089593798442259E+00    4.4094678182559521E+00    8.3149648736595729E+00
F    3.3570006468005489E+00    1.6922505669820525E+00    7.9272521544922991E+00
F    4.6713223328968914E+00    4.7503811106778476E-01    5.9258228621964744E+00
F    3.5214735407201814E+00    1.6391215815163829E+00    3.5345890380534022E+00
F    2.2681527051846722E+00    1.0927584693039717E-01    1.7526638099022207E+00
F    3.6518217472454966E+00   -1.7037982736580854E+00    2.3151719098974591E-01
F    6.3935802903014807E+00   -1.8802076784723207E+00    4.8142675758437115E-01
F    7.6935225296887761E+00   -3.0676711079599589E-01    2.2405368507933803E+00
C    7.5161610581262179E+00    7.4134919265325028E-01    5.1045238398560739E+00
C    7.4165339907470091E+00   -6.2941922350217794E-01    5.3602234610241357E+00
C    8.1211539744254022E+00   -1.2974715511948072E+00    6.3678736775664104E+00
C    8.9458125272367965E+00   -5.7496826168076376E-01    7.2237534482826034E+00
C    9.0819927917830299E+00    7.9674299213971866E-01    7.0143305374143594E+00
C    8.3810876466601023E+00    1.4112672087930616E+00    5.9802552468109900E+00
C    7.4316113946894182E+00    2.5853569776128675E+00    3.0246886923645211E+00
C    8.8053734645811943E+00    2.5605036452803622E+00    2.7717694574506591E+00
C    9.4403437622325832E+00    3.4016858749081322E+00    1.8517197368945140E+00
C    8.6899269294094115E+00    4.3178910673329494E+00    1.1210615198553329E+00
C    7.3083863241721074E+00    4.3510847149408001E+00    1.3040642250963224E+00
C    6.7213372912621487E+00    3.4820471384751381E+00    2.2171273136972620E+00
C    5.6716726104812443E+00    2.5059218456335515E+00    5.1537299011997124E+00
C    5.7570593907535379E+00    3.8789181302969293E+00    5.4074763005288302E+00
C    5.0561604604351196E+00    4.5345613655105605E+00    6.4256639756431033E+00
C    4.2626089525384740E+00    3.8007259783764620E+00    7.3007370981021200E+00
C    4.1488332866168669E+00    2.4243487452739241E+00    7.1044506595232235E+00
C    4.8383704411874371E+00    1.8241122454524981E+00    6.0522844659948367E+00
C    5.6811481941959752E+00    7.0462659257717142E-01    3.0307026944181250E+00
C    4.3029531642830579E+00    7.8127608663589987E-01    2.8186109003361883E+00
C    3.6133665070088896E+00   -1.0391912957201871E-03    1.8878092601846492E+00
C    4.3105821641733213E+00   -9.1755281001680433E-01    1.1089775781168207E+00
C    5.6959428813646928E+00   -1.0063247903010715E+00    1.2463011237498161E+00
C    6.3392286812611545E+00   -1.8943633985646172E-01    2.1741816518898154E+00
B    6.5771026526819147E+00    1.6303265173412342E+00    4.0653086130173381E+00
F    2.3332316758266396E+00    1.1730584061028068E+01    1.4845983246073830E+01
F    9.2324673047577133E-01    1.2937391946624757E+01    1.2958643637128556E+01
F   -6.9459035413568926E-01    1.1477357450815422E+01    1.1245641837143022E+01
F   -9.9333284368361707E-01    8.7864845475426065E+00    1.1668826510748932E+01
F    3.5048294057775331E-01    7.5450389773454436E+00    1.3633236789873946E+01
F   -7.2477768587425817E-01    8.6042039651788418E+00    1.6059993952093091E+01
F   -1.8760485081291107E+00    6.9587367047155517E+00    1.7817073762571333E+01
F   -3.8712076057526484E-01    5.1464161798113413E+00    1.9238400031937342E+01
F    2.3667946821101622E+00    5.0739082933506117E+00    1.8882135564984193E+01
F    3.5415115076151293E+00    6.7482106861256526E+00    1.7162639134922607E+01
F    2.3363556079789141E+00    5.6168761686823974E+00    1.4814810815949924E+01
F    3.7486642387499196E+00    4.4344140574512547E+00    1.2909509474633460E+01
F    5.2955818263640451E+00    5.9022397345974564E+00    1.1169248509572080E+01
F    5.5465090295196191E+00    8.6204236290902490E+00    1.1559188822960584E+01
F    4.2340984074411629E+00    9.8343676132213833E+00    1.3562236182869110E+01
F    5.3883290703545299E+00    8.6796644987849749E+00    1.5950943584435171E+01
F    6.6384076046888270E+00    1.0219023172307503E+01    1.7728435263903375E+01
F    5.2493722088862373E+00    1.2026751884226625E+01    1.9249539830950209E+01
F    2.5072349391152988E+00    1.2189566595216187E+01    1.9006156239684188E+01
F    1.2102776422973482E+00    1.0609418593014258E+01    1.7249389249286619E+01
C    1.3903816941996938E+00    9.5638068299767838E+00    1.4385289711288827E+01
C    1.4889514960260899E+00    1.0934397449920780E+01    1.4128333849749165E+01
C    7.8515869256363058E-01    1.1600791299077757E+01    1.3119040473974989E+01
C   -3.8467908738757987E-02    1.0876823078793638E+01    1.2263402592513744E+01
C   -1.7438554955523447E-01    9.5053592293263254E+00    1.2474756513846025E+01
C    5.2633557660470154E-01    8.8924165924527472E+00    1.3509856698985596E+01
C    1.4775010565269115E+00    7.7203192384229204E+00    1.6465377430518569E+01
C    1.0358996983610239E-01    7.7436815465932520E+00    1.6717967801592359E+01
C   -5.3092790064659690E-01    6.9011682907068002E+00    1.7637045030051972E+01
C    2.2011434252566892E-01    5.9854171231303770E+00    1.8367517504542711E+01
C    1.6017982442697372E+00    5.9538398919763287E+00    1.8185185909045359E+01
C    2.1884523960499767E+00    6.8238801706783248E+00    1.7272666407796585E+01
C    3.2368643375294690E+00    7.8022684928173556E+00    1.4335459658697552E+01
C    3.1518708101934996E+00    6.4294071110112512E+00    1.4080632515412129E+01
C    3.8515765156613693E+00    5.7750026526973315E+00    1.3060778808203453E+01
C    4.6434575477951565E+00    6.5100216671613422E+00    1.2185065751764691E+01
C    4.7567739301593353E+00    7.8863344949351504E+00    1.2382349047579231E+01
C    4.0683189432785563E+00    8.4851498280036139E+00    1.3436017465343344E+01
C    3.2254202130973928E+00    9.6045516792948558E+00    1.6458497473358427E+01
C    4.6042969971343872E+00    9.5340917148716482E+00    1.6668233553270969E+01
C    5.2921546345910517E+00    1.0320889423564100E+01    1.7596638755621807E+01
C    4.5922958861796612E+00    1.1234911317976330E+01    1.8375788091778130E+01
C    3.2063972556541764E+00    1.1317235554014289E+01    1.8241119243739849E+01
C    2.5649594089930630E+00    1.0496879955753453E+01    1.7315031421849046E+01
B    2.3308575935283287E+00    8.6764647400325039E+00    1.5424720749888802E+01
C    6.3655154981798896E+00    1.8771049840016105E-01    1.1553016030975657E+01
H    7.2887916740462799E+00   -2.9540491726984869E-01    1.1896144025029130E+01
H    6.0209191549925265E+00   -3.6402622169266413E-01    1.0667091926833404E+01
H    5.6081011989865850E+00    5.6476035842552362E-02    1.2333234245609860E+01
C    5.2488705973168210E+00    2.2595728206635539E+00    1.0684691504181377E+01
H    4.4871369120032272E+00    2.2285879161159117E+00    1.1471149813590683E+01
H    4.8780079407064294E+00    1.6807863238011722E+00    9.8296270750920165E+00
H    5.3661516874759219E+00    3.3054718482299106E+00    1.0373449222842611E+01
C    7.6186209173490393E+00    1.7460489511872477E+00    1.0061059510122851E+01
H    7.2474335287167140E+00    1.1996652432897454E+00    9.1828431057406927E+00
H    8.5752931260235226E+00    1.2979605365306064E+00    1.0355576004698342E+01
H    7.8124997878889548E+00    2.7777893121742991E+00    9.7419091060148730E+00
C    2.5397427997599782E+00    1.0118729155678627E+01    7.9339596975574338E+00
H    1.6169680336765073E+00    1.0601683129985863E+01    7.5893216401927637E+00
H    2.8834326989799468E+00    1.0671108885837784E+01    8.8198329013283772E+00
H    3.2980788710956008E+00    1.0249215023508592E+01    7.1545054083891557E+00
C    3.6557249848320259E+00    8.0472045799330161E+00    8.8034684542984554E+00
H    4.4172447050460191E+00    8.0770278400816071E+00    8.0167564729428999E+00
H    4.0270497687717919E+00    8.6268116462171669E+00    9.6577565147591855E+00
H    3.5381293842051251E+00    7.0017039443070503E+00    9.1158741494304412E+00
C    1.2862101442189282E+00    8.5616916582249853E+00    9.4269837192183754E+00
H    1.6578642842682547E+00    9.1081846781750144E+00    1.0304929951409900E+01
H    3.2973196533583765E-01    9.0101894017390531E+00    9.1324925634455205E+00
H    1.0918593557941503E+00    7.5301712574926496E+00    9.7465552667772144E+00
